LTspice 24.0.12 for Windows
Circuit: * C:\Users\eorzes\cernbox\Altium\PSLink\SI_simulations\CML_Driver\Draft1.asc
Start Time: Fri Dec 20 10:09:35 2024
Warning: Multiple definitions of model "2scr375p" Type: BJT
Warning: Multiple definitions of model "bc857b" Type: BJT
Warning: Multiple definitions of model "bc847c" Type: BJT
Warning: Multiple definitions of model "bc847b" Type: BJT
solver = Normal
Maximum thread count: 12
tnom = 27
temp = 27
method = modified trap
Limiting rise time of source v2 to 1e-10
Limiting fall time of source v2 to 1e-10
Limiting rise time of source v3 to 1e-10
Limiting fall time of source v3 to 1e-10
WARNING: Node N001 is floating.

Direct Newton iteration for .op point succeeded.
Total elapsed time: 0.202 seconds.

