LTspice 24.0.12 for Windows
Circuit: * C:\Users\eorzes\cernbox\Altium\PSLink\Netlists\Draft1.asc
Start Time: Wed Dec  4 17:34:27 2024
Error on line 2 : c1 n001 n002 c
	 Unable to find definition of model "c"
Error on line 3 : v1 n001 n002 v
	 Unknown parameter "v"
solver = Normal
Maximum thread count: 12
tnom = 27
temp = 27
method = modified trap
Fatal Error: This circuit does not have a conduction path to ground!
   Please flag a node as ground.
