LTspice 24.0.12 for Windows
Circuit: *----------------------------------------------------------------------
Start Time: Wed Dec  4 17:37:06 2024
solver = Normal
Maximum thread count: 12
tnom = 27
temp = 27
method = modified trap
Direct Newton iteration for .op point succeeded.
Total elapsed time: 0.093 seconds.

